data original/D023544/Lines.dss
New Line.line0 Units=km Length=0.001 bus1=n209568.1.2.3 bus2=n209569.1.2.3 switch=n enabled=y phases=3 Linecode=unknown_linecode_3
New Line.line1 Units=km Length=0.001 bus1=n209569.1.2.3 bus2=n209552.1.2.3 switch=n enabled=y phases=3 Linecode=unknown_linecode_3
New Line.line10 Units=km Length=0.043750000000000004 bus1=n209573.1.2.3 bus2=n209575.1.2.3 switch=n enabled=y phases=3 Linecode=unknown_linecode_3
New Line.line11 Units=km Length=0.001 bus1=n209575.1.2.3 bus2=n631394.1.2.3 switch=n enabled=y phases=3 Linecode=unknown_linecode_3
New Line.line12 Units=km Length=0.01462 bus1=n209570.1.2.3 bus2=n209576.1.2.3 switch=n enabled=y phases=3 Linecode=25AL_ABC_3
New Line.line13 Units=km Length=0.001 bus1=n209576.1.2.3 bus2=n631395.1.2.3 switch=n enabled=y phases=3 Linecode=25AL_ABC_3
New Line.line14 Units=km Length=0.01719 bus1=n209571.1.2.3 bus2=n631396.1.2.3 switch=n enabled=y phases=3 Linecode=unknown_linecode_3
New Line.line2 Units=km Length=0.04514 bus1=n209552.1.2.3 bus2=n209570.1.2.3 switch=n enabled=y phases=3 Linecode=unknown_linecode_3
New Line.line3 Units=km Length=0.045810000000000003 bus1=n209570.1.2.3 bus2=n209571.1.2.3 switch=n enabled=y phases=3 Linecode=unknown_linecode_3
New Line.line4 Units=km Length=0.045950000000000005 bus1=n209571.1.2.3 bus2=n209572.1.2.3 switch=n enabled=y phases=3 Linecode=unknown_linecode_3
New Line.line5 Units=km Length=0.02393 bus1=n209571.1.2.3 bus2=n631391.1.2.3 switch=n enabled=y phases=3 Linecode=unknown_linecode_3
New Line.line6 Units=km Length=0.014230000000000001 bus1=n209572.1.2.3 bus2=n631392.1.2.3 switch=n enabled=y phases=3 Linecode=unknown_linecode_3
New Line.line7 Units=km Length=0.04648 bus1=n209572.1.2.3 bus2=n209573.1.2.3 switch=n enabled=y phases=3 Linecode=unknown_linecode_3
New Line.line8 Units=km Length=0.02364 bus1=n209573.1.2.3 bus2=n209574.1.2.3 switch=n enabled=y phases=3 Linecode=25AL_ABC_3
New Line.line9 Units=km Length=0.001 bus1=n209574.1.2.3 bus2=n631393.1.2.3 switch=n enabled=y phases=3 Linecode=25AL_ABC_3
